Version 4
SHEET 1 948 680
WIRE -240 -256 -416 -256
WIRE -96 -256 -240 -256
WIRE 224 -256 -96 -256
WIRE 400 -256 224 -256
WIRE 656 -256 400 -256
WIRE -416 -208 -416 -256
WIRE 224 -192 224 -256
WIRE 656 -192 656 -256
WIRE 400 -128 400 -256
WIRE 496 -128 400 -128
WIRE -416 -96 -416 -128
WIRE -240 -96 -240 -256
WIRE 224 -64 224 -128
WIRE 400 -64 400 -128
WIRE 656 -64 656 -128
WIRE 496 -48 496 -128
WIRE -96 32 -96 -256
WIRE -368 80 -416 80
WIRE -240 80 -240 -16
WIRE -240 80 -288 80
WIRE -160 80 -240 80
WIRE 224 80 224 16
WIRE 304 80 224 80
WIRE 400 80 400 16
WIRE 400 80 304 80
WIRE 496 80 496 16
WIRE 496 80 400 80
WIRE 656 80 656 16
WIRE 864 80 656 80
WIRE 224 160 224 80
WIRE 400 176 400 80
WIRE 656 176 656 80
WIRE -96 208 -96 128
WIRE -48 208 -96 208
WIRE 64 208 32 208
WIRE 160 208 64 208
WIRE -416 224 -416 80
WIRE 656 272 656 176
WIRE 64 288 64 208
WIRE 400 320 400 256
WIRE 592 320 400 320
WIRE -416 432 -416 304
WIRE 64 432 64 368
WIRE 224 432 224 256
WIRE 656 432 656 368
FLAG 64 432 0
FLAG 224 432 0
FLAG 656 432 0
FLAG -416 -96 0
FLAG -416 432 0
FLAG 304 80 4wire
FLAG 656 176 2wire
DATAFLAG 400 80 ""
DATAFLAG 768 80 ""
SYMBOL npn 160 160 R0
SYMATTR InstName Q1
SYMATTR Value BC547C
SYMBOL npn 592 272 R0
SYMATTR InstName Q2
SYMATTR Value BC547C
SYMBOL pnp -160 128 M180
SYMATTR InstName Q3
SYMATTR Value BC557C
SYMBOL res 208 -80 R0
SYMATTR InstName R1
SYMATTR Value 220
SYMBOL res 384 160 R0
SYMATTR InstName R2
SYMATTR Value 10k
SYMBOL res 384 -80 R0
SYMATTR InstName R3
SYMATTR Value 165
SYMBOL res 640 -80 R0
SYMATTR InstName R4
SYMATTR Value 220
SYMBOL res -256 -112 R0
SYMATTR InstName R5
SYMATTR Value 7.2k
SYMBOL res -272 64 R90
WINDOW 0 0 56 VBottom 2
WINDOW 3 32 56 VTop 2
SYMATTR InstName R6
SYMATTR Value 4.8k
SYMBOL res 48 192 R90
WINDOW 0 0 56 VBottom 2
WINDOW 3 32 56 VTop 2
SYMATTR InstName R7
SYMATTR Value 1.5k
SYMBOL res 48 272 R0
SYMATTR InstName R8
SYMATTR Value 7.2k
SYMBOL LED 208 -192 R0
SYMATTR InstName D1
SYMATTR Value NSPW500BS
SYMATTR Description Diode
SYMATTR Type diode
SYMBOL LED 640 -192 R0
SYMATTR InstName D2
SYMATTR Value NSPW500BS
SYMATTR Description Diode
SYMATTR Type diode
SYMBOL voltage -416 -224 R0
WINDOW 123 0 0 Left 0
WINDOW 39 0 0 Left 0
SYMATTR InstName V1
SYMATTR Value 5
SYMBOL voltage -416 208 R0
WINDOW 123 0 0 Left 0
WINDOW 39 0 0 Left 0
SYMATTR InstName V2
SYMATTR Value 4.5
SYMBOL diode 512 16 R180
WINDOW 0 -45 55 Left 2
WINDOW 3 -102 21 Left 2
SYMATTR InstName D3
SYMATTR Value 1N4148
TEXT -418 -280 Left 2 !.op
TEXT -216 -280 Left 2 ;Emulate UDN2595A IO driver
TEXT 248 -280 Left 2 ;Emulate Relay, Rcoil=165ohm
TEXT -416 -440 Left 2 ;Target:\nOne IO driver, Active LOW, two LEDs toggle.\nDefault V2 = HIGH (Relay OFF, LED D1=OFF,  LED D2=ON): 2 Wire output selected\nActive V2 = LOW (Relay ON, LED D1=ON, LED D2=OFF): 4 Wire output selected.
