Version 4
SHEET 1 1332 708
WIRE -336 -368 -800 -368
WIRE -256 -368 -336 -368
WIRE 48 -368 -256 -368
WIRE 288 -368 48 -368
WIRE 736 -368 288 -368
WIRE 1088 -368 736 -368
WIRE -800 -336 -800 -368
WIRE -336 -336 -336 -368
WIRE 1088 -336 1088 -368
WIRE -336 -240 -336 -272
WIRE 48 -240 48 -368
WIRE 288 -240 288 -368
WIRE 736 -240 736 -368
WIRE 1088 -240 1088 -272
WIRE -800 -224 -800 -256
WIRE 736 -128 736 -160
WIRE 736 -128 496 -128
WIRE 912 -128 736 -128
WIRE 496 -96 496 -128
WIRE 736 -96 736 -128
WIRE 912 -80 912 -128
WIRE -736 -48 -800 -48
WIRE -672 -48 -736 -48
WIRE -560 -48 -592 -48
WIRE -336 -48 -336 -160
WIRE -336 -48 -368 -48
WIRE -160 -48 -336 -48
WIRE -128 -48 -160 -48
WIRE 432 -48 -48 -48
WIRE 672 -48 624 -48
WIRE -800 -16 -800 -48
WIRE 1088 -16 1088 -160
WIRE 1280 -16 1088 -16
WIRE 1328 -16 1280 -16
WIRE 288 32 288 -160
WIRE 496 32 496 0
WIRE 496 32 288 32
WIRE 736 32 736 0
WIRE 736 32 496 32
WIRE -560 48 -592 48
WIRE -336 48 -368 48
WIRE 288 80 288 32
WIRE 1088 80 1088 -16
WIRE -800 96 -800 64
WIRE -592 96 -592 48
WIRE -336 96 -336 48
WIRE 48 128 48 -160
WIRE 96 128 48 128
WIRE 224 128 176 128
WIRE 912 128 912 0
WIRE 1024 128 912 128
WIRE -256 208 -256 -368
WIRE 48 224 48 128
WIRE 288 256 288 176
WIRE 1088 256 1088 176
WIRE -160 272 -160 -48
WIRE -128 272 -160 272
WIRE -16 272 -48 272
WIRE -256 320 -256 272
WIRE 48 384 48 320
WIRE -752 432 -800 432
WIRE -672 432 -752 432
WIRE -560 432 -592 432
WIRE -256 432 -256 400
WIRE -256 432 -368 432
WIRE -160 432 -256 432
WIRE -128 432 -160 432
WIRE -16 432 -48 432
WIRE -800 464 -800 432
WIRE -560 528 -592 528
WIRE -336 528 -368 528
WIRE 48 528 48 480
WIRE -800 576 -800 544
WIRE -592 576 -592 528
WIRE -336 576 -336 528
WIRE -160 640 -160 432
WIRE -128 640 -160 640
WIRE 624 640 624 -48
WIRE 624 640 -48 640
FLAG 288 256 0
FLAG 48 528 0
FLAG 1088 256 0
FLAG -800 96 0
FLAG -800 -224 0
FLAG -336 96 0
FLAG -592 96 0
FLAG -592 576 0
FLAG -336 576 0
FLAG -752 432 Ireg
FLAG -736 -48 Ureg
FLAG -800 576 0
FLAG 1280 -16 Alarm
DATAFLAG -336 -96 ""
DATAFLAG -320 432 ""
DATAFLAG 48 128 ""
DATAFLAG 288 32 ""
DATAFLAG 1136 -16 ""
DATAFLAG 912 -128 ""
SYMBOL npn -16 224 R0
WINDOW 3 59 62 Left 2
SYMATTR Value BC547C
SYMATTR InstName Q1
SYMBOL npn -16 384 R0
SYMATTR InstName Q2
SYMATTR Value BC547C
SYMBOL npn 224 80 R0
SYMATTR InstName Q3
SYMATTR Value BC547C
SYMBOL npn 432 -96 R0
SYMATTR InstName Q4
SYMATTR Value BC547C
SYMBOL npn 672 -96 R0
SYMATTR InstName Q5
SYMATTR Value BC547C
SYMBOL res 720 -256 R0
SYMATTR InstName R1
SYMATTR Value 220
SYMBOL res 32 -256 R0
SYMATTR InstName R2
SYMATTR Value 220
SYMBOL res 272 -256 R0
SYMATTR InstName R3
SYMATTR Value 220
SYMBOL res 192 112 R90
WINDOW 0 0 56 VBottom 2
WINDOW 3 32 56 VTop 2
SYMATTR InstName R4
SYMATTR Value 10k
SYMBOL LED 1072 -336 R0
SYMATTR InstName D2
SYMATTR Value NSPW500BS
SYMATTR Description Diode
SYMATTR Type diode
SYMBOL res -32 256 R90
WINDOW 0 0 56 VBottom 2
WINDOW 3 32 56 VTop 2
SYMATTR InstName R5
SYMATTR Value 10k
SYMBOL res -32 416 R90
WINDOW 0 0 56 VBottom 2
WINDOW 3 32 56 VTop 2
SYMATTR InstName R6
SYMATTR Value 10k
SYMBOL res -32 -64 R90
WINDOW 0 0 56 VBottom 2
WINDOW 3 32 56 VTop 2
SYMATTR InstName R7
SYMATTR Value 10k
SYMBOL res -32 624 R90
WINDOW 0 0 56 VBottom 2
WINDOW 3 32 56 VTop 2
SYMATTR InstName R8
SYMATTR Value 10k
SYMBOL voltage -800 -32 R0
WINDOW 123 0 0 Left 0
WINDOW 39 0 0 Left 0
WINDOW 3 -301 173 Left 2
SYMATTR Value PULSE(0 5 1 0.0001 0.0001 1 2 10)
SYMATTR InstName V1
SYMBOL voltage -800 -352 R0
WINDOW 123 0 0 Left 0
WINDOW 39 0 0 Left 0
SYMATTR InstName V2
SYMATTR Value 5
SYMBOL Optos\\PC817C -464 0 R0
SYMATTR InstName U1
SYMBOL Optos\\PC817C -464 480 R0
SYMATTR InstName U2
SYMBOL res -576 416 R90
WINDOW 0 0 56 VBottom 2
WINDOW 3 32 56 VTop 2
SYMATTR InstName R9
SYMATTR Value 220
SYMBOL res -576 -64 R90
WINDOW 0 0 56 VBottom 2
WINDOW 3 32 56 VTop 2
SYMATTR InstName R10
SYMATTR Value 220
SYMBOL voltage -800 448 R0
WINDOW 123 0 0 Left 0
WINDOW 39 0 0 Left 0
WINDOW 3 -236 169 Left 2
SYMATTR Value PULSE(5 0 0.5 0.0001 0.0001 1 2 10)
SYMATTR InstName V3
SYMBOL LED -352 -336 R0
WINDOW 0 -46 32 Left 2
WINDOW 3 -140 64 Left 2
SYMATTR InstName D3
SYMATTR Value NSPW500BS
SYMATTR Description Diode
SYMATTR Type diode
SYMBOL LED -272 208 R0
WINDOW 0 -45 28 Left 2
WINDOW 3 -136 60 Left 2
SYMATTR InstName D4
SYMATTR Value NSPW500BS
SYMATTR Description Diode
SYMATTR Type diode
SYMBOL res -352 -256 R0
WINDOW 0 -55 44 Left 2
WINDOW 3 -56 70 Left 2
SYMATTR InstName R11
SYMATTR Value 220
SYMBOL res -272 304 R0
SYMATTR InstName R12
SYMATTR Value 220
SYMBOL res 928 16 R180
WINDOW 0 36 76 Left 2
WINDOW 3 36 40 Left 2
SYMATTR InstName R13
SYMATTR Value 10k
SYMBOL npn 1024 80 R0
SYMATTR InstName Q6
SYMATTR Value BC547C
SYMBOL res 1072 -256 R0
SYMATTR InstName R14
SYMATTR Value 220
TEXT -760 -432 Left 2 !;op
TEXT -760 -400 Left 2 !.tran 0 10 0.01 0.01
